Version 4
SHEET 1 936 680
WIRE 400 -128 224 -128
WIRE 400 -48 400 -128
WIRE 48 64 -32 64
WIRE 176 64 128 64
WIRE 352 64 256 64
WIRE 224 96 224 -128
WIRE 240 96 224 96
WIRE 400 96 400 32
WIRE 432 96 400 96
WIRE 240 112 240 96
WIRE 128 128 128 64
WIRE 208 128 128 128
WIRE 432 128 432 96
WIRE 352 144 352 64
WIRE 352 144 272 144
WIRE -32 160 -32 64
WIRE -32 160 -96 160
WIRE 16 160 -32 160
WIRE 96 160 80 160
WIRE 208 160 96 160
WIRE 96 176 96 160
WIRE 400 240 400 96
WIRE 240 320 240 176
WIRE 400 320 240 320
FLAG -96 240 0
FLAG 96 240 0
FLAG 432 128 0
SYMBOL cap 112 240 R180
WINDOW 0 24 56 Left 2
WINDOW 3 24 8 Left 2
SYMATTR InstName C1
SYMATTR Value {Cs}
SYMBOL res 112 144 R90
WINDOW 0 0 56 VBottom 2
WINDOW 3 32 56 VTop 2
SYMATTR InstName R1
SYMATTR Value {Rshift}
SYMBOL voltage -96 144 R0
WINDOW 3 24 96 Invisible 2
WINDOW 123 24 44 Left 2
WINDOW 39 0 0 Left 0
SYMATTR InstName V1
SYMATTR Value SINE(0 1 {fin})
SYMATTR Value2 AC 1
SYMBOL OpAmps\\LT1357 240 80 R0
SYMATTR InstName U1
SYMBOL res 272 48 R90
WINDOW 0 0 56 VBottom 2
WINDOW 3 32 56 VTop 2
SYMATTR InstName R2
SYMATTR Value {3*Rs}
SYMBOL res 144 48 R90
WINDOW 0 0 56 VBottom 2
WINDOW 3 32 56 VTop 2
SYMATTR InstName R3
SYMATTR Value {Rs}
SYMBOL voltage 400 -64 R0
WINDOW 123 0 0 Left 0
WINDOW 39 0 0 Left 0
SYMATTR InstName V2
SYMATTR Value 5
SYMBOL voltage 400 224 R0
WINDOW 123 0 0 Left 0
WINDOW 39 0 0 Left 0
SYMATTR InstName V3
SYMATTR Value 5
TEXT 480 200 Left 2 !.param Rs = 1k
TEXT 480 232 Left 2 !.param Cs = 1/(2*3.14*fin*Rs)
TEXT 480 168 Left 2 !.param fin = 4e6
TEXT 480 136 Left 2 !.step dec param Rshift 1e3 10e6 10
TEXT -130 264 Left 2 !.ac lin 10 10 10e6
